* NGSPICE file created from gcd.ext - technology: sky130A

* Black-box entry subcircuit for sky130_fd_sc_hd__decap_6 abstract view
.subckt sky130_fd_sc_hd__decap_6 VGND VNB VPB VPWR
.ends

* Black-box entry subcircuit for sky130_fd_sc_hd__a31o_1 abstract view
.subckt sky130_fd_sc_hd__a31o_1 A1 A2 A3 B1 VGND VNB VPB VPWR X
.ends

* Black-box entry subcircuit for sky130_ef_sc_hd__decap_12 abstract view
.subckt sky130_ef_sc_hd__decap_12 VPWR VGND VPB VNB
.ends

* Black-box entry subcircuit for sky130_fd_sc_hd__and2b_1 abstract view
.subckt sky130_fd_sc_hd__and2b_1 A_N B VGND VNB VPB VPWR X
.ends

* Black-box entry subcircuit for sky130_fd_sc_hd__decap_4 abstract view
.subckt sky130_fd_sc_hd__decap_4 VGND VNB VPB VPWR
.ends

* Black-box entry subcircuit for sky130_fd_sc_hd__fill_2 abstract view
.subckt sky130_fd_sc_hd__fill_2 VGND VNB VPB VPWR
.ends

* Black-box entry subcircuit for sky130_fd_sc_hd__fill_1 abstract view
.subckt sky130_fd_sc_hd__fill_1 VGND VNB VPB VPWR
.ends

* Black-box entry subcircuit for sky130_fd_sc_hd__o31a_1 abstract view
.subckt sky130_fd_sc_hd__o31a_1 A1 A2 A3 B1 VGND VNB VPB VPWR X
.ends

* Black-box entry subcircuit for sky130_fd_sc_hd__inv_2 abstract view
.subckt sky130_fd_sc_hd__inv_2 A VGND VNB VPB VPWR Y
.ends

* Black-box entry subcircuit for sky130_fd_sc_hd__clkbuf_1 abstract view
.subckt sky130_fd_sc_hd__clkbuf_1 A VGND VNB VPB VPWR X
.ends

* Black-box entry subcircuit for sky130_fd_sc_hd__tapvpwrvgnd_1 abstract view
.subckt sky130_fd_sc_hd__tapvpwrvgnd_1 VGND VPWR
.ends

* Black-box entry subcircuit for sky130_fd_sc_hd__decap_8 abstract view
.subckt sky130_fd_sc_hd__decap_8 VGND VNB VPB VPWR
.ends

* Black-box entry subcircuit for sky130_fd_sc_hd__decap_3 abstract view
.subckt sky130_fd_sc_hd__decap_3 VGND VNB VPB VPWR
.ends

* Black-box entry subcircuit for sky130_fd_sc_hd__dfrtp_1 abstract view
.subckt sky130_fd_sc_hd__dfrtp_1 CLK D RESET_B VGND VNB VPB VPWR Q
.ends

* Black-box entry subcircuit for sky130_fd_sc_hd__or3_1 abstract view
.subckt sky130_fd_sc_hd__or3_1 A B C VGND VNB VPB VPWR X
.ends

* Black-box entry subcircuit for sky130_fd_sc_hd__and3_1 abstract view
.subckt sky130_fd_sc_hd__and3_1 A B C VGND VNB VPB VPWR X
.ends

* Black-box entry subcircuit for sky130_fd_sc_hd__a21oi_1 abstract view
.subckt sky130_fd_sc_hd__a21oi_1 A1 A2 B1 VGND VNB VPB VPWR Y
.ends

* Black-box entry subcircuit for sky130_fd_sc_hd__or2b_1 abstract view
.subckt sky130_fd_sc_hd__or2b_1 A B_N VGND VNB VPB VPWR X
.ends

* Black-box entry subcircuit for sky130_fd_sc_hd__o2bb2a_1 abstract view
.subckt sky130_fd_sc_hd__o2bb2a_1 A1_N A2_N B1 B2 VGND VNB VPB VPWR X
.ends

* Black-box entry subcircuit for sky130_fd_sc_hd__buf_2 abstract view
.subckt sky130_fd_sc_hd__buf_2 A VGND VNB VPB VPWR X
.ends

* Black-box entry subcircuit for sky130_fd_sc_hd__or4_1 abstract view
.subckt sky130_fd_sc_hd__or4_1 A B C D VGND VNB VPB VPWR X
.ends

* Black-box entry subcircuit for sky130_fd_sc_hd__mux2_1 abstract view
.subckt sky130_fd_sc_hd__mux2_1 A0 A1 S VGND VNB VPB VPWR X
.ends

* Black-box entry subcircuit for sky130_fd_sc_hd__o21bai_2 abstract view
.subckt sky130_fd_sc_hd__o21bai_2 A1 A2 B1_N VGND VNB VPB VPWR Y
.ends

* Black-box entry subcircuit for sky130_fd_sc_hd__nand3_1 abstract view
.subckt sky130_fd_sc_hd__nand3_1 A B C VGND VNB VPB VPWR Y
.ends

* Black-box entry subcircuit for sky130_fd_sc_hd__dfrtp_4 abstract view
.subckt sky130_fd_sc_hd__dfrtp_4 CLK D RESET_B VGND VNB VPB VPWR Q
.ends

* Black-box entry subcircuit for sky130_fd_sc_hd__o221a_1 abstract view
.subckt sky130_fd_sc_hd__o221a_1 A1 A2 B1 B2 C1 VGND VNB VPB VPWR X
.ends

* Black-box entry subcircuit for sky130_fd_sc_hd__nor4_1 abstract view
.subckt sky130_fd_sc_hd__nor4_1 A B C D VGND VNB VPB VPWR Y
.ends

* Black-box entry subcircuit for sky130_fd_sc_hd__o21a_1 abstract view
.subckt sky130_fd_sc_hd__o21a_1 A1 A2 B1 VGND VNB VPB VPWR X
.ends

* Black-box entry subcircuit for sky130_fd_sc_hd__clkbuf_4 abstract view
.subckt sky130_fd_sc_hd__clkbuf_4 A VGND VNB VPB VPWR X
.ends

* Black-box entry subcircuit for sky130_fd_sc_hd__xor2_1 abstract view
.subckt sky130_fd_sc_hd__xor2_1 A B VGND VNB VPB VPWR X
.ends

* Black-box entry subcircuit for sky130_fd_sc_hd__dfxtp_4 abstract view
.subckt sky130_fd_sc_hd__dfxtp_4 CLK D VGND VNB VPB VPWR Q
.ends

* Black-box entry subcircuit for sky130_fd_sc_hd__xnor2_1 abstract view
.subckt sky130_fd_sc_hd__xnor2_1 A B VGND VNB VPB VPWR Y
.ends

* Black-box entry subcircuit for sky130_fd_sc_hd__nand3_2 abstract view
.subckt sky130_fd_sc_hd__nand3_2 A B C VGND VNB VPB VPWR Y
.ends

* Black-box entry subcircuit for sky130_fd_sc_hd__nand2_1 abstract view
.subckt sky130_fd_sc_hd__nand2_1 A B VGND VNB VPB VPWR Y
.ends

* Black-box entry subcircuit for sky130_fd_sc_hd__diode_2 abstract view
.subckt sky130_fd_sc_hd__diode_2 DIODE VGND VNB VPB VPWR
.ends

* Black-box entry subcircuit for sky130_fd_sc_hd__or2_1 abstract view
.subckt sky130_fd_sc_hd__or2_1 A B VGND VNB VPB VPWR X
.ends

* Black-box entry subcircuit for sky130_fd_sc_hd__a21o_1 abstract view
.subckt sky130_fd_sc_hd__a21o_1 A1 A2 B1 VGND VNB VPB VPWR X
.ends

* Black-box entry subcircuit for sky130_fd_sc_hd__clkbuf_2 abstract view
.subckt sky130_fd_sc_hd__clkbuf_2 A VGND VNB VPB VPWR X
.ends

* Black-box entry subcircuit for sky130_fd_sc_hd__buf_1 abstract view
.subckt sky130_fd_sc_hd__buf_1 A VGND VNB VPB VPWR X
.ends

* Black-box entry subcircuit for sky130_fd_sc_hd__a31oi_1 abstract view
.subckt sky130_fd_sc_hd__a31oi_1 A1 A2 A3 B1 VGND VNB VPB VPWR Y
.ends

* Black-box entry subcircuit for sky130_fd_sc_hd__nor2_1 abstract view
.subckt sky130_fd_sc_hd__nor2_1 A B VGND VNB VPB VPWR Y
.ends

* Black-box entry subcircuit for sky130_fd_sc_hd__or3b_1 abstract view
.subckt sky130_fd_sc_hd__or3b_1 A B C_N VGND VNB VPB VPWR X
.ends

* Black-box entry subcircuit for sky130_fd_sc_hd__o22a_1 abstract view
.subckt sky130_fd_sc_hd__o22a_1 A1 A2 B1 B2 VGND VNB VPB VPWR X
.ends

* Black-box entry subcircuit for sky130_fd_sc_hd__o21bai_1 abstract view
.subckt sky130_fd_sc_hd__o21bai_1 A1 A2 B1_N VGND VNB VPB VPWR Y
.ends

* Black-box entry subcircuit for sky130_fd_sc_hd__dfrtp_2 abstract view
.subckt sky130_fd_sc_hd__dfrtp_2 CLK D RESET_B VGND VNB VPB VPWR Q
.ends

* Black-box entry subcircuit for sky130_fd_sc_hd__dfxtp_1 abstract view
.subckt sky130_fd_sc_hd__dfxtp_1 CLK D VGND VNB VPB VPWR Q
.ends

* Black-box entry subcircuit for sky130_fd_sc_hd__o21ai_1 abstract view
.subckt sky130_fd_sc_hd__o21ai_1 A1 A2 B1 VGND VNB VPB VPWR Y
.ends

* Black-box entry subcircuit for sky130_fd_sc_hd__clkbuf_8 abstract view
.subckt sky130_fd_sc_hd__clkbuf_8 A VGND VNB VPB VPWR X
.ends

* Black-box entry subcircuit for sky130_fd_sc_hd__and2_1 abstract view
.subckt sky130_fd_sc_hd__and2_1 A B VGND VNB VPB VPWR X
.ends

* Black-box entry subcircuit for sky130_fd_sc_hd__dlymetal6s2s_1 abstract view
.subckt sky130_fd_sc_hd__dlymetal6s2s_1 A VGND VNB VPB VPWR X
.ends

* Black-box entry subcircuit for sky130_fd_sc_hd__a311o_1 abstract view
.subckt sky130_fd_sc_hd__a311o_1 A1 A2 A3 B1 C1 VGND VNB VPB VPWR X
.ends

* Black-box entry subcircuit for sky130_fd_sc_hd__nor2b_2 abstract view
.subckt sky130_fd_sc_hd__nor2b_2 A B_N VGND VNB VPB VPWR Y
.ends

* Black-box entry subcircuit for sky130_fd_sc_hd__o211a_1 abstract view
.subckt sky130_fd_sc_hd__o211a_1 A1 A2 B1 C1 VGND VNB VPB VPWR X
.ends

* Black-box entry subcircuit for sky130_fd_sc_hd__dfxtp_2 abstract view
.subckt sky130_fd_sc_hd__dfxtp_2 CLK D VGND VNB VPB VPWR Q
.ends

* Black-box entry subcircuit for sky130_fd_sc_hd__a21boi_2 abstract view
.subckt sky130_fd_sc_hd__a21boi_2 A1 A2 B1_N VGND VNB VPB VPWR Y
.ends

* Black-box entry subcircuit for sky130_fd_sc_hd__buf_4 abstract view
.subckt sky130_fd_sc_hd__buf_4 A VGND VNB VPB VPWR X
.ends

* Black-box entry subcircuit for sky130_fd_sc_hd__a41o_1 abstract view
.subckt sky130_fd_sc_hd__a41o_1 A1 A2 A3 A4 B1 VGND VNB VPB VPWR X
.ends

* Black-box entry subcircuit for sky130_fd_sc_hd__or2b_2 abstract view
.subckt sky130_fd_sc_hd__or2b_2 A B_N VGND VNB VPB VPWR X
.ends

* Black-box entry subcircuit for sky130_fd_sc_hd__o211a_2 abstract view
.subckt sky130_fd_sc_hd__o211a_2 A1 A2 B1 C1 VGND VNB VPB VPWR X
.ends

* Black-box entry subcircuit for sky130_fd_sc_hd__o32a_1 abstract view
.subckt sky130_fd_sc_hd__o32a_1 A1 A2 A3 B1 B2 VGND VNB VPB VPWR X
.ends

* Black-box entry subcircuit for sky130_fd_sc_hd__a211o_1 abstract view
.subckt sky130_fd_sc_hd__a211o_1 A1 A2 B1 C1 VGND VNB VPB VPWR X
.ends

* Black-box entry subcircuit for sky130_fd_sc_hd__a21bo_1 abstract view
.subckt sky130_fd_sc_hd__a21bo_1 A1 A2 B1_N VGND VNB VPB VPWR X
.ends

* Black-box entry subcircuit for sky130_fd_sc_hd__xor2_2 abstract view
.subckt sky130_fd_sc_hd__xor2_2 A B VGND VNB VPB VPWR X
.ends

* Black-box entry subcircuit for sky130_fd_sc_hd__a221o_1 abstract view
.subckt sky130_fd_sc_hd__a221o_1 A1 A2 B1 B2 C1 VGND VNB VPB VPWR X
.ends

* Black-box entry subcircuit for sky130_fd_sc_hd__or3_2 abstract view
.subckt sky130_fd_sc_hd__or3_2 A B C VGND VNB VPB VPWR X
.ends

* Black-box entry subcircuit for sky130_fd_sc_hd__a22o_1 abstract view
.subckt sky130_fd_sc_hd__a22o_1 A1 A2 B1 B2 VGND VNB VPB VPWR X
.ends

* Black-box entry subcircuit for sky130_fd_sc_hd__o311a_1 abstract view
.subckt sky130_fd_sc_hd__o311a_1 A1 A2 A3 B1 C1 VGND VNB VPB VPWR X
.ends

* Black-box entry subcircuit for sky130_fd_sc_hd__o2111ai_4 abstract view
.subckt sky130_fd_sc_hd__o2111ai_4 A1 A2 B1 C1 D1 VGND VNB VPB VPWR Y
.ends

* Black-box entry subcircuit for sky130_fd_sc_hd__a211oi_1 abstract view
.subckt sky130_fd_sc_hd__a211oi_1 A1 A2 B1 C1 VGND VNB VPB VPWR Y
.ends

* Black-box entry subcircuit for sky130_fd_sc_hd__o21ba_1 abstract view
.subckt sky130_fd_sc_hd__o21ba_1 A1 A2 B1_N VGND VNB VPB VPWR X
.ends

* Black-box entry subcircuit for sky130_fd_sc_hd__a211oi_4 abstract view
.subckt sky130_fd_sc_hd__a211oi_4 A1 A2 B1 C1 VGND VNB VPB VPWR Y
.ends

* Black-box entry subcircuit for sky130_fd_sc_hd__a2bb2o_1 abstract view
.subckt sky130_fd_sc_hd__a2bb2o_1 A1_N A2_N B1 B2 VGND VNB VPB VPWR X
.ends

* Black-box entry subcircuit for sky130_fd_sc_hd__clkbuf_16 abstract view
.subckt sky130_fd_sc_hd__clkbuf_16 A VGND VNB VPB VPWR X
.ends

* Black-box entry subcircuit for sky130_fd_sc_hd__o31ai_1 abstract view
.subckt sky130_fd_sc_hd__o31ai_1 A1 A2 A3 B1 VGND VNB VPB VPWR Y
.ends

* Black-box entry subcircuit for sky130_fd_sc_hd__or2_2 abstract view
.subckt sky130_fd_sc_hd__or2_2 A B VGND VNB VPB VPWR X
.ends

* Black-box entry subcircuit for sky130_fd_sc_hd__or4_2 abstract view
.subckt sky130_fd_sc_hd__or4_2 A B C D VGND VNB VPB VPWR X
.ends

* Black-box entry subcircuit for sky130_fd_sc_hd__nor2b_1 abstract view
.subckt sky130_fd_sc_hd__nor2b_1 A B_N VGND VNB VPB VPWR Y
.ends

* Black-box entry subcircuit for sky130_fd_sc_hd__a21o_2 abstract view
.subckt sky130_fd_sc_hd__a21o_2 A1 A2 B1 VGND VNB VPB VPWR X
.ends

* Black-box entry subcircuit for sky130_fd_sc_hd__and4_1 abstract view
.subckt sky130_fd_sc_hd__and4_1 A B C D VGND VNB VPB VPWR X
.ends

* Black-box entry subcircuit for sky130_fd_sc_hd__a2111o_1 abstract view
.subckt sky130_fd_sc_hd__a2111o_1 A1 A2 B1 C1 D1 VGND VNB VPB VPWR X
.ends

* Black-box entry subcircuit for sky130_fd_sc_hd__nor3_1 abstract view
.subckt sky130_fd_sc_hd__nor3_1 A B C VGND VNB VPB VPWR Y
.ends

* Black-box entry subcircuit for sky130_fd_sc_hd__a21oi_2 abstract view
.subckt sky130_fd_sc_hd__a21oi_2 A1 A2 B1 VGND VNB VPB VPWR Y
.ends

* Black-box entry subcircuit for sky130_fd_sc_hd__nor2_2 abstract view
.subckt sky130_fd_sc_hd__nor2_2 A B VGND VNB VPB VPWR Y
.ends

* Black-box entry subcircuit for sky130_fd_sc_hd__a31o_2 abstract view
.subckt sky130_fd_sc_hd__a31o_2 A1 A2 A3 B1 VGND VNB VPB VPWR X
.ends

* Black-box entry subcircuit for sky130_fd_sc_hd__o2111a_1 abstract view
.subckt sky130_fd_sc_hd__o2111a_1 A1 A2 B1 C1 D1 VGND VNB VPB VPWR X
.ends

* Black-box entry subcircuit for sky130_fd_sc_hd__or4b_1 abstract view
.subckt sky130_fd_sc_hd__or4b_1 A B C D_N VGND VNB VPB VPWR X
.ends

* Black-box entry subcircuit for sky130_fd_sc_hd__o22ai_1 abstract view
.subckt sky130_fd_sc_hd__o22ai_1 A1 A2 B1 B2 VGND VNB VPB VPWR Y
.ends

* Black-box entry subcircuit for sky130_fd_sc_hd__nand2_2 abstract view
.subckt sky130_fd_sc_hd__nand2_2 A B VGND VNB VPB VPWR Y
.ends

* Black-box entry subcircuit for sky130_fd_sc_hd__a21boi_1 abstract view
.subckt sky130_fd_sc_hd__a21boi_1 A1 A2 B1_N VGND VNB VPB VPWR Y
.ends

* Black-box entry subcircuit for sky130_fd_sc_hd__and3b_1 abstract view
.subckt sky130_fd_sc_hd__and3b_1 A_N B C VGND VNB VPB VPWR X
.ends

* Black-box entry subcircuit for sky130_fd_sc_hd__a311oi_2 abstract view
.subckt sky130_fd_sc_hd__a311oi_2 A1 A2 A3 B1 C1 VGND VNB VPB VPWR Y
.ends

* Black-box entry subcircuit for sky130_fd_sc_hd__a2111oi_1 abstract view
.subckt sky130_fd_sc_hd__a2111oi_1 A1 A2 B1 C1 D1 VGND VNB VPB VPWR Y
.ends

* Black-box entry subcircuit for sky130_fd_sc_hd__nand2b_1 abstract view
.subckt sky130_fd_sc_hd__nand2b_1 A_N B VGND VNB VPB VPWR Y
.ends

* Black-box entry subcircuit for sky130_fd_sc_hd__a31oi_2 abstract view
.subckt sky130_fd_sc_hd__a31oi_2 A1 A2 A3 B1 VGND VNB VPB VPWR Y
.ends

* Black-box entry subcircuit for sky130_fd_sc_hd__nor3_2 abstract view
.subckt sky130_fd_sc_hd__nor3_2 A B C VGND VNB VPB VPWR Y
.ends

* Black-box entry subcircuit for sky130_fd_sc_hd__nand4b_1 abstract view
.subckt sky130_fd_sc_hd__nand4b_1 A_N B C D VGND VNB VPB VPWR Y
.ends

* Black-box entry subcircuit for sky130_fd_sc_hd__o21ai_2 abstract view
.subckt sky130_fd_sc_hd__o21ai_2 A1 A2 B1 VGND VNB VPB VPWR Y
.ends

* Black-box entry subcircuit for sky130_fd_sc_hd__dlygate4sd3_1 abstract view
.subckt sky130_fd_sc_hd__dlygate4sd3_1 A VGND VNB VPB VPWR X
.ends

* Black-box entry subcircuit for sky130_fd_sc_hd__o21bai_4 abstract view
.subckt sky130_fd_sc_hd__o21bai_4 A1 A2 B1_N VGND VNB VPB VPWR Y
.ends

* Black-box entry subcircuit for sky130_fd_sc_hd__nand2b_2 abstract view
.subckt sky130_fd_sc_hd__nand2b_2 A_N B VGND VNB VPB VPWR Y
.ends

* Black-box entry subcircuit for sky130_fd_sc_hd__and4_2 abstract view
.subckt sky130_fd_sc_hd__and4_2 A B C D VGND VNB VPB VPWR X
.ends

* Black-box entry subcircuit for sky130_fd_sc_hd__o211ai_1 abstract view
.subckt sky130_fd_sc_hd__o211ai_1 A1 A2 B1 C1 VGND VNB VPB VPWR Y
.ends

* Black-box entry subcircuit for sky130_fd_sc_hd__o31ai_2 abstract view
.subckt sky130_fd_sc_hd__o31ai_2 A1 A2 A3 B1 VGND VNB VPB VPWR Y
.ends

* Black-box entry subcircuit for sky130_fd_sc_hd__and2b_2 abstract view
.subckt sky130_fd_sc_hd__and2b_2 A_N B VGND VNB VPB VPWR X
.ends

* Black-box entry subcircuit for sky130_fd_sc_hd__and4b_1 abstract view
.subckt sky130_fd_sc_hd__and4b_1 A_N B C D VGND VNB VPB VPWR X
.ends

* Black-box entry subcircuit for sky130_fd_sc_hd__o41a_1 abstract view
.subckt sky130_fd_sc_hd__o41a_1 A1 A2 A3 A4 B1 VGND VNB VPB VPWR X
.ends

.subckt gcd VGND VPWR clk operands_bits_A[0] operands_bits_A[100] operands_bits_A[101]
+ operands_bits_A[102] operands_bits_A[103] operands_bits_A[104] operands_bits_A[105]
+ operands_bits_A[106] operands_bits_A[107] operands_bits_A[108] operands_bits_A[109]
+ operands_bits_A[10] operands_bits_A[110] operands_bits_A[111] operands_bits_A[112]
+ operands_bits_A[113] operands_bits_A[114] operands_bits_A[115] operands_bits_A[116]
+ operands_bits_A[117] operands_bits_A[118] operands_bits_A[119] operands_bits_A[11]
+ operands_bits_A[120] operands_bits_A[121] operands_bits_A[122] operands_bits_A[123]
+ operands_bits_A[124] operands_bits_A[125] operands_bits_A[126] operands_bits_A[127]
+ operands_bits_A[12] operands_bits_A[13] operands_bits_A[14] operands_bits_A[15]
+ operands_bits_A[16] operands_bits_A[17] operands_bits_A[18] operands_bits_A[19]
+ operands_bits_A[1] operands_bits_A[20] operands_bits_A[21] operands_bits_A[22] operands_bits_A[23]
+ operands_bits_A[24] operands_bits_A[25] operands_bits_A[26] operands_bits_A[27]
+ operands_bits_A[28] operands_bits_A[29] operands_bits_A[2] operands_bits_A[30] operands_bits_A[31]
+ operands_bits_A[32] operands_bits_A[33] operands_bits_A[34] operands_bits_A[35]
+ operands_bits_A[36] operands_bits_A[37] operands_bits_A[38] operands_bits_A[39]
+ operands_bits_A[3] operands_bits_A[40] operands_bits_A[41] operands_bits_A[42] operands_bits_A[43]
+ operands_bits_A[44] operands_bits_A[45] operands_bits_A[46] operands_bits_A[47]
+ operands_bits_A[48] operands_bits_A[49] operands_bits_A[4] operands_bits_A[50] operands_bits_A[51]
+ operands_bits_A[52] operands_bits_A[53] operands_bits_A[54] operands_bits_A[55]
+ operands_bits_A[56] operands_bits_A[57] operands_bits_A[58] operands_bits_A[59]
+ operands_bits_A[5] operands_bits_A[60] operands_bits_A[61] operands_bits_A[62] operands_bits_A[63]
+ operands_bits_A[64] operands_bits_A[65] operands_bits_A[66] operands_bits_A[67]
+ operands_bits_A[68] operands_bits_A[69] operands_bits_A[6] operands_bits_A[70] operands_bits_A[71]
+ operands_bits_A[72] operands_bits_A[73] operands_bits_A[74] operands_bits_A[75]
+ operands_bits_A[76] operands_bits_A[77] operands_bits_A[78] operands_bits_A[79]
+ operands_bits_A[7] operands_bits_A[80] operands_bits_A[81] operands_bits_A[82] operands_bits_A[83]
+ operands_bits_A[84] operands_bits_A[85] operands_bits_A[86] operands_bits_A[87]
+ operands_bits_A[88] operands_bits_A[89] operands_bits_A[8] operands_bits_A[90] operands_bits_A[91]
+ operands_bits_A[92] operands_bits_A[93] operands_bits_A[94] operands_bits_A[95]
+ operands_bits_A[96] operands_bits_A[97] operands_bits_A[98] operands_bits_A[99]
+ operands_bits_A[9] operands_bits_B[0] operands_bits_B[100] operands_bits_B[101]
+ operands_bits_B[102] operands_bits_B[103] operands_bits_B[104] operands_bits_B[105]
+ operands_bits_B[106] operands_bits_B[107] operands_bits_B[108] operands_bits_B[109]
+ operands_bits_B[10] operands_bits_B[110] operands_bits_B[111] operands_bits_B[112]
+ operands_bits_B[113] operands_bits_B[114] operands_bits_B[115] operands_bits_B[116]
+ operands_bits_B[117] operands_bits_B[118] operands_bits_B[119] operands_bits_B[11]
+ operands_bits_B[120] operands_bits_B[121] operands_bits_B[122] operands_bits_B[123]
+ operands_bits_B[124] operands_bits_B[125] operands_bits_B[126] operands_bits_B[127]
+ operands_bits_B[12] operands_bits_B[13] operands_bits_B[14] operands_bits_B[15]
+ operands_bits_B[16] operands_bits_B[17] operands_bits_B[18] operands_bits_B[19]
+ operands_bits_B[1] operands_bits_B[20] operands_bits_B[21] operands_bits_B[22] operands_bits_B[23]
+ operands_bits_B[24] operands_bits_B[25] operands_bits_B[26] operands_bits_B[27]
+ operands_bits_B[28] operands_bits_B[29] operands_bits_B[2] operands_bits_B[30] operands_bits_B[31]
+ operands_bits_B[32] operands_bits_B[33] operands_bits_B[34] operands_bits_B[35]
+ operands_bits_B[36] operands_bits_B[37] operands_bits_B[38] operands_bits_B[39]
+ operands_bits_B[3] operands_bits_B[40] operands_bits_B[41] operands_bits_B[42] operands_bits_B[43]
+ operands_bits_B[44] operands_bits_B[45] operands_bits_B[46] operands_bits_B[47]
+ operands_bits_B[48] operands_bits_B[49] operands_bits_B[4] operands_bits_B[50] operands_bits_B[51]
+ operands_bits_B[52] operands_bits_B[53] operands_bits_B[54] operands_bits_B[55]
+ operands_bits_B[56] operands_bits_B[57] operands_bits_B[58] operands_bits_B[59]
+ operands_bits_B[5] operands_bits_B[60] operands_bits_B[61] operands_bits_B[62] operands_bits_B[63]
+ operands_bits_B[64] operands_bits_B[65] operands_bits_B[66] operands_bits_B[67]
+ operands_bits_B[68] operands_bits_B[69] operands_bits_B[6] operands_bits_B[70] operands_bits_B[71]
+ operands_bits_B[72] operands_bits_B[73] operands_bits_B[74] operands_bits_B[75]
+ operands_bits_B[76] operands_bits_B[77] operands_bits_B[78] operands_bits_B[79]
+ operands_bits_B[7] operands_bits_B[80] operands_bits_B[81] operands_bits_B[82] operands_bits_B[83]
+ operands_bits_B[84] operands_bits_B[85] operands_bits_B[86] operands_bits_B[87]
+ operands_bits_B[88] operands_bits_B[89] operands_bits_B[8] operands_bits_B[90] operands_bits_B[91]
+ operands_bits_B[92] operands_bits_B[93] operands_bits_B[94] operands_bits_B[95]
+ operands_bits_B[96] operands_bits_B[97] operands_bits_B[98] operands_bits_B[99]
+ operands_bits_B[9] operands_rdy operands_val reset result_bits_data[0] result_bits_data[100]
+ result_bits_data[101] result_bits_data[102] result_bits_data[103] result_bits_data[104]
+ result_bits_data[105] result_bits_data[106] result_bits_data[107] result_bits_data[108]
+ result_bits_data[109] result_bits_data[10] result_bits_data[110] result_bits_data[111]
+ result_bits_data[112] result_bits_data[113] result_bits_data[114] result_bits_data[115]
+ result_bits_data[116] result_bits_data[117] result_bits_data[118] result_bits_data[119]
+ result_bits_data[11] result_bits_data[120] result_bits_data[121] result_bits_data[122]
+ result_bits_data[123] result_bits_data[124] result_bits_data[125] result_bits_data[126]
+ result_bits_data[127] result_bits_data[12] result_bits_data[13] result_bits_data[14]
+ result_bits_data[15] result_bits_data[16] result_bits_data[17] result_bits_data[18]
+ result_bits_data[19] result_bits_data[1] result_bits_data[20] result_bits_data[21]
+ result_bits_data[22] result_bits_data[23] result_bits_data[24] result_bits_data[25]
+ result_bits_data[26] result_bits_data[27] result_bits_data[28] result_bits_data[29]
+ result_bits_data[2] result_bits_data[30] result_bits_data[31] result_bits_data[32]
+ result_bits_data[33] result_bits_data[34] result_bits_data[35] result_bits_data[36]
+ result_bits_data[37] result_bits_data[38] result_bits_data[39] result_bits_data[3]
+ result_bits_data[40] result_bits_data[41] result_bits_data[42] result_bits_data[43]
+ result_bits_data[44] result_bits_data[45] result_bits_data[46] result_bits_data[47]
+ result_bits_data[48] result_bits_data[49] result_bits_data[4] result_bits_data[50]
+ result_bits_data[51] result_bits_data[52] result_bits_data[53] result_bits_data[54]
+ result_bits_data[55] result_bits_data[56] result_bits_data[57] result_bits_data[58]
+ result_bits_data[59] result_bits_data[5] result_bits_data[60] result_bits_data[61]
+ result_bits_data[62] result_bits_data[63] result_bits_data[64] result_bits_data[65]
+ result_bits_data[66] result_bits_data[67] result_bits_data[68] result_bits_data[69]
+ result_bits_data[6] result_bits_data[70] result_bits_data[71] result_bits_data[72]
+ result_bits_data[73] result_bits_data[74] result_bits_data[75] result_bits_data[76]
+ result_bits_data[77] result_bits_data[78] result_bits_data[79] result_bits_data[7]
+ result_bits_data[80] result_bits_data[81] result_bits_data[82] result_bits_data[83]
+ result_bits_data[84] result_bits_data[85] result_bits_data[86] result_bits_data[87]
+ result_bits_data[88] result_bits_data[89] result_bits_data[8] result_bits_data[90]
+ result_bits_data[91] result_bits_data[92] result_bits_data[93] result_bits_data[94]
+ result_bits_data[95] result_bits_data[96] result_bits_data[97] result_bits_data[98]
+ result_bits_data[99] result_bits_data[9] result_rdy result_val
XFILLER_0_94_77 VGND VGND VPWR VPWR sky130_fd_sc_hd__decap_6
X_3155_ _1194_ _1203_ _1205_ _0779_ VGND VGND VPWR VPWR _1206_ sky130_fd_sc_hd__a31o_1
XFILLER_0_27_93 VPWR VGND VPWR VGND sky130_ef_sc_hd__decap_12
X_3086_ net283 GCDdpath0.B_reg\[120\] VGND VGND VPWR VPWR _1137_ sky130_fd_sc_hd__and2b_1
XFILLER_0_77_612 VGND VGND VPWR VPWR sky130_fd_sc_hd__decap_4
XFILLER_0_89_472 VGND VGND VPWR VPWR sky130_fd_sc_hd__fill_2
XFILLER_0_167_809 VPWR VGND VPWR VGND sky130_ef_sc_hd__decap_12
XFILLER_0_76_133 VGND VGND VPWR VPWR sky130_fd_sc_hd__decap_6
XFILLER_0_134_83 VGND VGND VPWR VPWR sky130_fd_sc_hd__fill_1
XFILLER_0_43_81 VPWR VGND VPWR VGND sky130_ef_sc_hd__decap_12
XFILLER_0_18_701 VPWR VGND VPWR VGND sky130_ef_sc_hd__decap_12
XFILLER_0_159_393 VPWR VGND VPWR VGND sky130_ef_sc_hd__decap_12
XFILLER_0_174_330 VGND VGND VPWR VPWR sky130_fd_sc_hd__decap_6
XFILLER_0_58_881 VPWR VGND VPWR VGND sky130_ef_sc_hd__decap_12
XFILLER_0_76_177 VPWR VGND VPWR VGND sky130_ef_sc_hd__decap_12
XFILLER_0_174_341 VGND VGND VPWR VPWR sky130_fd_sc_hd__decap_6
XFILLER_0_91_125 VPWR VGND VPWR VGND sky130_ef_sc_hd__decap_12
XFILLER_0_174_363 VGND VGND VPWR VPWR sky130_fd_sc_hd__fill_1
X_3988_ _0643_ _0701_ _1938_ _0644_ VGND VGND VPWR VPWR _1939_ sky130_fd_sc_hd__o31a_1
XFILLER_0_162_525 VGND VGND VPWR VPWR sky130_fd_sc_hd__decap_6
XFILLER_0_91_169 VPWR VGND VPWR VGND sky130_ef_sc_hd__decap_12
X_2939_ _0913_ VGND VGND VPWR VPWR _0990_ sky130_fd_sc_hd__inv_2
XFILLER_0_45_575 VPWR VGND VPWR VGND sky130_ef_sc_hd__decap_12
XFILLER_0_73_895 VGND VGND VPWR VPWR sky130_fd_sc_hd__fill_1
XFILLER_0_162_569 VPWR VGND VPWR VGND sky130_ef_sc_hd__decap_12
XFILLER_0_143_783 VGND VGND VPWR VPWR sky130_fd_sc_hd__fill_1
X_4609_ _2405_ VGND VGND VPWR VPWR _0260_ sky130_fd_sc_hd__clkbuf_1
XFILLER_0_131_945 VGND VGND VPWR VPWR sky130_fd_sc_hd__decap_6
XFILLER_0_14_973 VGND VGND VPWR VPWR sky130_fd_sc_hd__decap_6
XFILLER_0_60_589 VPWR VGND VPWR VGND sky130_ef_sc_hd__decap_12
XFILLER_0_13_461 VPWR VGND VPWR VGND sky130_ef_sc_hd__decap_12
XTAP_TAPCELL_ROW_57_1431 VGND VPWR sky130_fd_sc_hd__tapvpwrvgnd_1
XFILLER_0_131_989 VPWR VGND VPWR VGND sky130_ef_sc_hd__decap_12
XTAP_TAPCELL_ROW_92_2078 VGND VPWR sky130_fd_sc_hd__tapvpwrvgnd_1
XFILLER_0_7_81 VPWR VGND VPWR VGND sky130_ef_sc_hd__decap_12
XFILLER_0_99_1033 VPWR VGND VPWR VGND sky130_ef_sc_hd__decap_12
XTAP_TAPCELL_ROW_70_1664 VGND VPWR sky130_fd_sc_hd__tapvpwrvgnd_1
XTAP_TAPCELL_ROW_70_1675 VGND VPWR sky130_fd_sc_hd__tapvpwrvgnd_1
XFILLER_0_99_225 VPWR VGND VPWR VGND sky130_ef_sc_hd__decap_12
XTAP_TAPCELL_ROW_29_913 VGND VPWR sky130_fd_sc_hd__tapvpwrvgnd_1
XFILLER_0_169_113 VPWR VGND VPWR VGND sky130_ef_sc_hd__decap_12
XFILLER_0_68_601 VGND VGND VPWR VPWR sky130_fd_sc_hd__decap_8
XFILLER_0_68_623 VGND VGND VPWR VPWR sky130_fd_sc_hd__decap_3
XFILLER_0_67_111 VGND VGND VPWR VPWR sky130_fd_sc_hd__fill_1
XFILLER_0_138_533 VPWR VGND VPWR VGND sky130_ef_sc_hd__decap_12
XFILLER_0_95_497 VGND VGND VPWR VPWR sky130_fd_sc_hd__decap_6
XFILLER_0_153_503 VGND VGND VPWR VPWR sky130_fd_sc_hd__fill_1
XFILLER_0_36_531 VGND VGND VPWR VPWR sky130_fd_sc_hd__fill_1
XFILLER_0_125_205 VPWR VGND VPWR VGND sky130_ef_sc_hd__decap_12
XFILLER_0_126_739 VPWR VGND VPWR VGND sky130_ef_sc_hd__decap_12
XFILLER_0_165_385 VGND VGND VPWR VPWR sky130_fd_sc_hd__decap_6
XFILLER_0_70_309 VGND VGND VPWR VPWR sky130_fd_sc_hd__decap_3
XFILLER_0_130_19 VGND VGND VPWR VPWR sky130_fd_sc_hd__decap_8
XFILLER_0_107_953 VPWR VGND VPWR VGND sky130_ef_sc_hd__decap_12
XFILLER_0_125_249 VPWR VGND VPWR VGND sky130_ef_sc_hd__decap_12
XFILLER_0_118_290 VPWR VGND VPWR VGND sky130_ef_sc_hd__decap_12
XFILLER_0_141_709 VPWR VGND VPWR VGND sky130_ef_sc_hd__decap_12
XFILLER_0_24_737 VPWR VGND VPWR VGND sky130_ef_sc_hd__decap_12
XFILLER_0_3_609 VGND VGND VPWR VPWR sky130_fd_sc_hd__decap_6
XFILLER_0_63_383 VGND VGND VPWR VPWR sky130_fd_sc_hd__decap_4
XFILLER_0_23_225 VPWR VGND VPWR VGND sky130_ef_sc_hd__decap_12
XTAP_TAPCELL_ROW_77_1807 VGND VPWR sky130_fd_sc_hd__tapvpwrvgnd_1
XFILLER_0_122_923 VGND VGND VPWR VPWR sky130_fd_sc_hd__fill_1
XFILLER_0_133_293 VPWR VGND VPWR VGND sky130_ef_sc_hd__decap_12
XFILLER_0_107_1033 VPWR VGND VPWR VGND sky130_ef_sc_hd__decap_12
XFILLER_0_32_781 VPWR VGND VPWR VGND sky130_ef_sc_hd__decap_12
XFILLER_0_43_1021 VPWR VGND VPWR VGND sky130_ef_sc_hd__decap_12
XFILLER_0_48_15 VPWR VGND VPWR VGND sky130_ef_sc_hd__decap_12
XFILLER_0_102_691 VGND VGND VPWR VPWR sky130_fd_sc_hd__decap_8
XTAP_TAPCELL_ROW_147_3089 VGND VPWR sky130_fd_sc_hd__tapvpwrvgnd_1
XFILLER_0_155_27 VPWR VGND VPWR VGND sky130_ef_sc_hd__decap_12
XFILLER_0_3_39 VPWR VGND VPWR VGND sky130_ef_sc_hd__decap_12
XFILLER_0_87_921 VPWR VGND VPWR VGND sky130_ef_sc_hd__decap_12
XTAP_TAPCELL_ROW_125_2686 VGND VPWR sky130_fd_sc_hd__tapvpwrvgnd_1
XFILLER_0_149_809 VPWR VGND VPWR VGND sky130_ef_sc_hd__decap_12
X_4960_ clknet_leaf_34_clk _0292_ _0036_ VGND VGND VPWR VPWR GCDdpath0.B_reg\[33\]
+ sky130_fd_sc_hd__dfrtp_1
XTAP_TAPCELL_ROW_125_2697 VGND VPWR sky130_fd_sc_hd__tapvpwrvgnd_1
XFILLER_0_171_15 VPWR VGND VPWR VGND sky130_ef_sc_hd__decap_12
XFILLER_0_58_133 VGND VGND VPWR VPWR sky130_fd_sc_hd__decap_6
XFILLER_0_87_965 VPWR VGND VPWR VGND sky130_ef_sc_hd__decap_12
XFILLER_0_114_1037 VPWR VGND VPWR VGND sky130_ef_sc_hd__decap_12
X_3911_ net61 _1804_ _1734_ VGND VGND VPWR VPWR _1874_ sky130_fd_sc_hd__or3_1
X_4891_ _2457_ VGND VGND VPWR VPWR _0228_ sky130_fd_sc_hd__inv_2
XFILLER_0_86_475 VGND VGND VPWR VPWR sky130_fd_sc_hd__fill_1
XFILLER_0_157_853 VPWR VGND VPWR VGND sky130_ef_sc_hd__decap_12
XFILLER_0_58_177 VPWR VGND VPWR VGND sky130_ef_sc_hd__decap_12
XTAP_TAPCELL_ROW_15_651 VGND VPWR sky130_fd_sc_hd__tapvpwrvgnd_1
XFILLER_0_11_1009 VPWR VGND VPWR VGND sky130_ef_sc_hd__decap_12
XFILLER_0_73_125 VPWR VGND VPWR VGND sky130_ef_sc_hd__decap_12
X_3842_ _1770_ _0837_ _1722_ VGND VGND VPWR VPWR _1814_ sky130_fd_sc_hd__and3_1
XFILLER_0_104_53 VPWR VGND VPWR VGND sky130_ef_sc_hd__decap_12
XTAP_TAPCELL_ROW_15_662 VGND VPWR sky130_fd_sc_hd__tapvpwrvgnd_1
XFILLER_0_13_51 VGND VGND VPWR VPWR sky130_fd_sc_hd__decap_4
XFILLER_0_156_363 VGND VGND VPWR VPWR sky130_fd_sc_hd__fill_1
XFILLER_0_157_897 VPWR VGND VPWR VGND sky130_ef_sc_hd__decap_12
XFILLER_0_27_553 VGND VGND VPWR VPWR sky130_fd_sc_hd__decap_6
XFILLER_0_144_525 VGND VGND VPWR VPWR sky130_fd_sc_hd__decap_6
XFILLER_0_73_169 VPWR VGND VPWR VGND sky130_ef_sc_hd__decap_12
XFILLER_0_104_97 VPWR VGND VPWR VGND sky130_ef_sc_hd__decap_12
X_3773_ _1748_ _1754_ _1326_ VGND VGND VPWR VPWR _1755_ sky130_fd_sc_hd__a21oi_1
XFILLER_0_172_867 VGND VGND VPWR VPWR sky130_fd_sc_hd__fill_1
XFILLER_0_55_895 VGND VGND VPWR VPWR sky130_fd_sc_hd__fill_1
XFILLER_0_144_569 VPWR VGND VPWR VGND sky130_ef_sc_hd__decap_12
XFILLER_0_27_597 VPWR VGND VPWR VGND sky130_ef_sc_hd__decap_12
XFILLER_0_6_469 VGND VGND VPWR VPWR sky130_fd_sc_hd__decap_6
X_2724_ _0773_ _0774_ VGND VGND VPWR VPWR _0775_ sky130_fd_sc_hd__or2b_1
XFILLER_0_80_7 VPWR VGND VPWR VGND sky130_ef_sc_hd__decap_12